


  3  2  0  0  0  0            999 V2000
    0.8413   -0.5906    0.0000 C   0  0  0  0  0  0  0  0  0  1  0  0
    1.2173   -1.3229    0.0000 O   0  0  0  0  0  0  0  0  0  2  0  0
    0.0000   -0.5680    0.0000 O   0  5  0  0  0  0  0  0  0  3  0  0
  1  2  2  0  0  0  0
  1  3  1  0  0  0  0
M  STY  6   1 DAT   2 DAT   3 DAT   4 DAT   5 DAT   6 DAT
M  SAL   1  1   1
M  SDT   1 neighbors
M  SDD   1     0.0000    0.3333    DAU   ALL  0       0
M  SED   1 3
M  SAL   2  1   2
M  SDT   2 neighbors
M  SDD   2     0.0000    0.6667    DAU   ALL  0       0
M  SED   2 1
M  SAL   3  1   3
M  SDT   3 neighbors
M  SDD   3     0.0000    1.0000    DAU   ALL  0       0
M  SED   3 1
M  SAL   4  1   1
M  SDT   4 hybridization
M  SDD   4     0.0000    1.3333    DAU   ALL  0       0
M  SED   4 2
M  SAL   5  1   2
M  SDT   5 hybridization
M  SDD   5     0.0000    1.6667    DAU   ALL  0       0
M  SED   5 2
M  SAL   6  1   3
M  SDT   6 hybridization
M  SDD   6     0.0000    2.0000    DAU   ALL  0       0
M  SED   6 1
M  END
$$$$



  4  3  0  0  0  0            999 V2000
    3.1759   -0.8486    0.0000 N   0  3  0  0  0  0  0  0  0  1  0  0
    3.1752   -1.7273    0.0000 H   0  0  0  0  0  0  0  0  0  2  0  0
    3.5949   -0.1157    0.0000 H   0  0  0  0  0  0  0  0  0  3  0  0
    4.0275   -1.0792    0.0000 H   0  0  0  0  0  0  0  0  0  4  0  0
  1  2  1  0  0  0  0
  1  3  1  0  0  0  0
  1  4  1  0  0  0  0
M  STY  8   1 DAT   2 DAT   3 DAT   4 DAT   5 DAT   6 DAT   7 DAT   8 DAT
M  SAL   1  1   1
M  SDT   1 neighbors
M  SDD   1     0.0000    0.3333    DAU   ALL  0       0
M  SED   1 4
M  SAL   2  1   2
M  SDT   2 neighbors
M  SDD   2     0.0000    0.6667    DAU   ALL  0       0
M  SED   2 1
M  SAL   3  1   3
M  SDT   3 neighbors
M  SDD   3     0.0000    1.0000    DAU   ALL  0       0
M  SED   3 1
M  SAL   4  1   4
M  SDT   4 neighbors
M  SDD   4     0.0000    1.3333    DAU   ALL  0       0
M  SED   4 1
M  SAL   5  1   1
M  SDT   5 hybridization
M  SDD   5     0.0000    1.6667    DAU   ALL  0       0
M  SED   5 1
M  SAL   6  1   2
M  SDT   6 hybridization
M  SDD   6     0.0000    2.0000    DAU   ALL  0       0
M  SED   6 1
M  SAL   7  1   3
M  SDT   7 hybridization
M  SDD   7     0.0000    2.3333    DAU   ALL  0       0
M  SED   7 1
M  SAL   8  1   4
M  SDT   8 hybridization
M  SDD   8     0.0000    2.6667    DAU   ALL  0       0
M  SED   8 1
M  END
$$$$



  1  0  0  0  0  0            999 V2000
    0.0000    0.0000    0.0000 Cl  0  5  0  0  0  0  0  0  0  1  0  0
M  STY  2   1 DAT   2 DAT
M  SAL   1  1   1
M  SDT   1 neighbors
M  SDD   1     0.0000    0.3333    DAU   ALL  0       0
M  SED   1 0
M  SAL   2  1   1
M  SDT   2 hybridization
M  SDD   2     0.0000    0.6667    DAU   ALL  0       0
M  SED   2 1
M  END
$$$$



  9  8  0  0  0  0            999 V2000
    1.8333    0.2462    0.0000 N   0  0  0  0  0  0  0  0  0  1  0  0
    2.6609   -0.0092    0.0000 H   0  0  0  0  0  0  0  0  0  2  0  0
    1.2865   -0.3518    0.0000 C   0  0  0  0  0  0  0  0  0  3  0  0
    0.4734   -0.3218    0.0000 N   0  0  0  0  0  0  0  0  0  4  0  0
    0.0558   -1.0737    0.0000 H   0  0  0  0  0  0  0  0  0  5  0  0
    0.0000    0.3517    0.0000 H   0  0  0  0  0  0  0  0  0  6  0  0
    1.6180   -1.1443    0.0000 N   0  3  0  0  0  0  0  0  0  7  0  0
    2.4381   -1.2280    0.0000 H   0  0  0  0  0  0  0  0  0  8  0  0
    1.1019   -1.7873    0.0000 H   0  0  0  0  0  0  0  0  0  9  0  0
  1  2  1  0  0  0  0
  1  3  1  0  0  0  0
  3  4  1  0  0  0  0
  3  7  2  0  0  0  0
  4  5  1  0  0  0  0
  4  6  1  0  0  0  0
  7  8  1  0  0  0  0
  7  9  1  0  0  0  0
M  STY  8   1 DAT   2 DAT   3 DAT   4 DAT   5 DAT   6 DAT   7 DAT   8 DAT
M  STY  8   9 DAT  10 DAT  11 DAT  12 DAT  13 DAT  14 DAT  15 DAT  16 DAT
M  STY  2  17 DAT  18 DAT
M  SAL   1  1   1
M  SDT   1 neighbors
M  SDD   1     0.0000    0.3333    DAU   ALL  0       0
M  SED   1 3
M  SAL   2  1   2
M  SDT   2 neighbors
M  SDD   2     0.0000    0.6667    DAU   ALL  0       0
M  SED   2 1
M  SAL   3  1   3
M  SDT   3 neighbors
M  SDD   3     0.0000    1.0000    DAU   ALL  0       0
M  SED   3 3
M  SAL   4  1   4
M  SDT   4 neighbors
M  SDD   4     0.0000    1.3333    DAU   ALL  0       0
M  SED   4 3
M  SAL   5  1   5
M  SDT   5 neighbors
M  SDD   5     0.0000    1.6667    DAU   ALL  0       0
M  SED   5 1
M  SAL   6  1   6
M  SDT   6 neighbors
M  SDD   6     0.0000    2.0000    DAU   ALL  0       0
M  SED   6 1
M  SAL   7  1   7
M  SDT   7 neighbors
M  SDD   7     0.0000    2.3333    DAU   ALL  0       0
M  SED   7 3
M  SAL   8  1   8
M  SDT   8 neighbors
M  SDD   8     0.0000    2.6667    DAU   ALL  0       0
M  SED   8 1
M  SAL   9  1   9
M  SDT   9 neighbors
M  SDD   9     0.0000    3.0000    DAU   ALL  0       0
M  SED   9 1
M  SAL  10  1   1
M  SDT  10 hybridization
M  SDD  10     0.0000    3.3333    DAU   ALL  0       0
M  SED  10 1
M  SAL  11  1   2
M  SDT  11 hybridization
M  SDD  11     0.0000    3.6667    DAU   ALL  0       0
M  SED  11 1
M  SAL  12  1   3
M  SDT  12 hybridization
M  SDD  12     0.0000    4.0000    DAU   ALL  0       0
M  SED  12 2
M  SAL  13  1   4
M  SDT  13 hybridization
M  SDD  13     0.0000    4.3333    DAU   ALL  0       0
M  SED  13 1
M  SAL  14  1   5
M  SDT  14 hybridization
M  SDD  14     0.0000    4.6667    DAU   ALL  0       0
M  SED  14 1
M  SAL  15  1   6
M  SDT  15 hybridization
M  SDD  15     0.0000    5.0000    DAU   ALL  0       0
M  SED  15 1
M  SAL  16  1   7
M  SDT  16 hybridization
M  SDD  16     0.0000    5.3333    DAU   ALL  0       0
M  SED  16 2
M  SAL  17  1   8
M  SDT  17 hybridization
M  SDD  17     0.0000    5.6667    DAU   ALL  0       0
M  SED  17 1
M  SAL  18  1   9
M  SDT  18 hybridization
M  SDD  18     0.0000    6.0000    DAU   ALL  0       0
M  SED  18 1
M  END
$$$$
